! Created by Dirk & Stephan & Katja

Version, 8.3;

BuildingSurface:Detailed,
Floor_2,
Floor,
Bodenplatte,
F0_Office_2,
Outdoors,,
SunExposed,
WindExposed,
1,
4,
2.31,0,0,
0,0,0,
0,3.85,0,
2.31,3.85,0;

BuildingSurface:Detailed,
North_3,
Wall,
BüroTrennwandFlur,
F0_Office_2,
Surface,South_74,
NoSun,
NoWind,
0.5,
4,
2.309,3.85,0,
0,3.85,0,
0,3.85,3.274,
2.309,3.85,3.274;

BuildingSurface:Detailed,
East_4,
Wall,
Bürotrennwand,
F0_Office_2,
Surface,West_12,
NoSun,
NoWind,
0.5,
4,
2.31,3.85,3.274,
2.31,0,3.274,
2.31,0,0,
2.31,3.85,0;

BuildingSurface:Detailed,
South_5,
Wall,
Aussenwand,
F0_Office_2,
Outdoors,,
SunExposed,
WindExposed,
0.5,
4,
0,0,0,
2.31,0,0,
2.31,0,3.275,
0,0,3.275;

BuildingSurface:Detailed,
West_6,
Wall,
Bürotrennwand,
F0_Office_2,
Surface,South_933,
NoSun,
NoWind,
0.5,
4,
0,3.85,0,
0,0,0,
0,0,3.274,
0,3.85,3.274;

BuildingSurface:Detailed,
Roof_7,
Roof,
Geschossdecke_Rev,
F0_Office_2,
Surface,Floor_119,
NoSun,
NoWind,
0,
4,
2.309,3.85,3.275,
0,3.85,3.275,
0,0,3.275,
2.309,0,3.275;

BuildingSurface:Detailed,
Floor_8,
Floor,
Bodenplatte,
F0_Office_3,
Outdoors,,
SunExposed,
WindExposed,
1,
4,
4.72,0,0,
2.41,0,0,
2.41,3.85,0,
4.72,3.85,0;

BuildingSurface:Detailed,
North_9,
Wall,
BüroTrennwandFlur,
F0_Office_3,
Surface,South_75,
NoSun,
NoWind,
0.5,
4,
4.719,3.85,0,
2.409,3.85,0,
2.409,3.85,3.274,
4.719,3.85,3.274;

BuildingSurface:Detailed,
East_10,
Wall,
Bürotrennwand,
F0_Office_3,
Surface,West_19,
NoSun,
NoWind,
0.5,
4,
4.72,3.85,3.274,
4.72,0,3.274,
4.72,0,0,
4.72,3.85,0;

BuildingSurface:Detailed,
South_11,
Wall,
Aussenwand,
F0_Office_3,
Outdoors,,
SunExposed,
WindExposed,
0.5,
4,
2.41,0,0,
4.72,0,0,
4.72,0,3.275,
2.41,0,3.275;

BuildingSurface:Detailed,
West_12,
Wall,
Bürotrennwand,
F0_Office_3,
Surface,East_4,
NoSun,
NoWind,
0.5,
4,
2.41,3.85,0,
2.41,0,0,
2.41,0,3.274,
2.41,3.85,3.274;

BuildingSurface:Detailed,
Roof_13,
Ceiling,
Geschossdecke_Rev,
F0_Office_3,
Surface,Floor_125,
NoSun,
NoWind,
0,
4,
4.719,3.85,3.275,
2.409,3.85,3.275,
2.409,0,3.275,
4.719,0,3.275;

BuildingSurface:Detailed,
Floor_15,
Floor,
Bodenplatte,
F0_Office_4,
Outdoors,,
SunExposed,
WindExposed,
1,
4,
7.13,0,0,
4.82,0,0,
4.82,3.85,0,
7.13,3.85,0;

BuildingSurface:Detailed,
North_16,
Wall,
BüroTrennwandFlur,
F0_Office_4,
Surface,South_76,
NoSun,
NoWind,
0.5,
4,
7.129,3.85,0,
4.819,3.85,0,
4.819,3.85,3.274,
7.129,3.85,3.274;

BuildingSurface:Detailed,
East_17,
Wall,
Bürotrennwand,
F0_Office_4,
Surface,West_26,
NoSun,
NoWind,
0.5,
4,
7.13,3.85,3.274,
7.13,0,3.274,
7.13,0,0,
7.13,3.85,0;

BuildingSurface:Detailed,
South_18,
Wall,
Aussenwand,
F0_Office_4,
Outdoors,,
SunExposed,
WindExposed,
0.5,
4,
4.82,0,0,
7.13,0,0,
7.13,0,3.275,
4.82,0,3.275;

BuildingSurface:Detailed,
West_19,
Wall,
Bürotrennwand,
F0_Office_4,
Surface,East_10,
NoSun,
NoWind,
0.5,
4,
4.82,3.85,0,
4.82,0,0,
4.82,0,3.274,
4.82,3.85,3.274;

BuildingSurface:Detailed,
Roof_20,
Ceiling,
Geschossdecke_Rev,
F0_Office_4,
Surface,Floor_132,
NoSun,
NoWind,
0,
4,
7.129,3.85,3.275,
4.819,3.85,3.275,
4.819,0,3.275,
7.129,0,3.275;

BuildingSurface:Detailed,
Floor_22,
Floor,
Bodenplatte,
F0_Office_5,
Outdoors,,
SunExposed,
WindExposed,
1,
4,
9.54,0,0,
7.23,0,0,
7.23,3.85,0,
9.54,3.85,0;

BuildingSurface:Detailed,
North_23,
Wall,
BüroTrennwandFlur,
F0_Office_5,
Surface,South_77,
NoSun,
NoWind,
0.5,
4,
9.54,3.85,0,
7.229,3.85,0,
7.229,3.85,3.274,
9.54,3.85,3.274;

BuildingSurface:Detailed,
East_24,
Wall,
Bürotrennwand,
F0_Office_5,
Surface,West_33,
NoSun,
NoWind,
0.5,
4,
9.54,3.85,3.274,
9.54,0,3.274,
9.54,0,0,
9.54,3.85,0;

BuildingSurface:Detailed,
South_25,
Wall,
Aussenwand,
F0_Office_5,
Outdoors,,
SunExposed,
WindExposed,
0.5,
4,
7.23,0,0,
9.54,0,0,
9.54,0,3.275,
7.23,0,3.275;

BuildingSurface:Detailed,
West_26,
Wall,
Bürotrennwand,
F0_Office_5,
Surface,East_17,
NoSun,
NoWind,
0.5,
4,
7.23,3.85,0,
7.23,0,0,
7.23,0,3.274,
7.23,3.85,3.274;

BuildingSurface:Detailed,
Roof_27,
Ceiling,
Geschossdecke_Rev,
F0_Office_5,
Surface,Floor_139,
NoSun,
NoWind,
0,
4,
9.54,3.85,3.275,
7.229,3.85,3.275,
7.229,0,3.275,
9.54,0,3.275;

BuildingSurface:Detailed,
Floor_29,
Floor,
Bodenplatte,
F0_Office_6,
Outdoors,,
SunExposed,
WindExposed,
1,
4,
11.95,0,0,
9.64,0,0,
9.64,3.85,0,
11.95,3.85,0;

BuildingSurface:Detailed,
North_30,
Wall,
BüroTrennwandFlur,
F0_Office_6,
Adiabatic,,
NoSun,
NoWind,
0.5,
4,
11.95,3.85,0,
11.949,3.85,0,
11.949,3.85,3.274,
11.95,3.85,3.274;

BuildingSurface:Detailed,
North_31,
Wall,
BüroTrennwandFlur,
F0_Office_6,
Surface,South_78,
NoSun,
NoWind,
0.5,
4,
11.949,3.85,0,
9.639,3.85,0,
9.639,3.85,3.274,
11.949,3.85,3.274;

BuildingSurface:Detailed,
East_31,
Wall,
BüroTrennwandFlur,
F0_Office_6,
Adiabatic,,
NoSun,
NoWind,
0.5,
4,
11.95,3.85,3.274,
11.95,3.75,3.274,
11.95,3.75,0,
11.95,3.85,0;

BuildingSurface:Detailed,
East_32,
Wall,
BürotrennwandKern,
F0_Office_6,
Surface,West_81,
NoSun,
NoWind,
0.5,
4,
11.95,3.75,3.274,
11.95,0,3.274,
11.95,0,0,
11.95,3.75,0;

BuildingSurface:Detailed,
South_32,
Wall,
Aussenwand,
F0_Office_6,
Outdoors,,
SunExposed,
WindExposed,
0.5,
4,
9.64,0,0,
11.95,0,0,
11.95,0,3.275,
9.64,0,3.275;

BuildingSurface:Detailed,
West_33,
Wall,
Bürotrennwand,
F0_Office_6,
Surface,East_24,
NoSun,
NoWind,
0.5,
4,
9.64,3.85,0,
9.64,0,0,
9.64,0,3.274,
9.64,3.85,3.274;

BuildingSurface:Detailed,
Roof_34,
Ceiling,
Geschossdecke_Rev,
F0_Office_6,
Surface,Floor_146,
NoSun,
NoWind,
0,
4,
11.95,3.85,3.275,
9.639,3.85,3.275,
9.639,0,3.275,
11.95,0,3.275;

BuildingSurface:Detailed,
Floor_36,
Floor,
Bodenplatte,
F0_Office_7,
Outdoors,,
SunExposed,
WindExposed,
1,
4,
2.31,5.55,0,
0,5.55,0,
0,9.4,0,
2.31,9.4,0;

BuildingSurface:Detailed,
North_37,
Wall,
Aussenwand,
F0_Office_7,
Outdoors,,
SunExposed,
WindExposed,
0.5,
4,
2.309,9.4,0,
0,9.4,0,
0,9.4,3.274,
2.309,9.4,3.274;

BuildingSurface:Detailed,
East_38,
Wall,
Bürotrennwand,
F0_Office_7,
Surface,West_47,
NoSun,
NoWind,
0.5,
4,
2.31,9.4,3.274,
2.31,5.55,3.274,
2.31,5.55,0,
2.31,9.4,0;

BuildingSurface:Detailed,
South_39,
Wall,
BüroTrennwandFlur,
F0_Office_7,
Surface,North_72,
NoSun,
NoWind,
0.5,
4,
2.309,5.55,3.274,
0,5.55,3.274,
0,5.55,0,
2.309,5.55,0;

BuildingSurface:Detailed,
West_40,
Wall,
BüroTrennwandFlur,
F0_Office_7,
Adiabatic,,
NoSun,
NoWind,
0.5,
4,
0,9.4,0,
0,9.399,0,
0,9.399,3.274,
0,9.4,3.274;

BuildingSurface:Detailed,
West_41,
Wall,
BüroTrennwandFlur,
F0_Office_7,
Surface,South_1053,
NoSun,
NoWind,
0.5,
4,
0,9.399,0,
0,5.55,0,
0,5.55,3.274,
0,9.399,3.274;

BuildingSurface:Detailed,
Roof_41,
Ceiling,
Geschossdecke_Rev,
F0_Office_7,
Surface,Floor_153,
NoSun,
NoWind,
0,
4,
2.309,9.4,3.275,
0,9.4,3.275,
0,5.55,3.275,
2.309,5.55,3.275;

BuildingSurface:Detailed,
Floor_43,
Floor,
Bodenplatte,
F0_Office_8,
Outdoors,,
SunExposed,
WindExposed,
1,
4,
4.72,5.55,0,
2.41,5.55,0,
2.41,9.4,0,
4.72,9.4,0;

BuildingSurface:Detailed,
North_44,
Wall,
Aussenwand,
F0_Office_8,
Outdoors,,
SunExposed,
WindExposed,
0.5,
4,
4.72,9.4,0,
2.41,9.4,0,
2.41,9.4,3.275,
4.72,9.4,3.275;

BuildingSurface:Detailed,
East_45,
Wall,
Bürotrennwand,
F0_Office_8,
Surface,West_54,
NoSun,
NoWind,
0.5,
4,
4.72,9.4,3.274,
4.72,5.55,3.274,
4.72,5.55,0,
4.72,9.4,0;

BuildingSurface:Detailed,
South_46,
Wall,
BüroTrennwandFlur,
F0_Office_8,
Surface,North_73,
NoSun,
NoWind,
0.5,
4,
4.719,5.55,3.274,
2.409,5.55,3.274,
2.409,5.55,0,
4.719,5.55,0;

BuildingSurface:Detailed,
West_47,
Wall,
Bürotrennwand,
F0_Office_8,
Surface,East_38,
NoSun,
NoWind,
0.5,
4,
2.41,9.4,0,
2.41,5.55,0,
2.41,5.55,3.274,
2.41,9.4,3.274;

BuildingSurface:Detailed,
Roof_48,
Ceiling,
Geschossdecke_Rev,
F0_Office_8,
Surface,Floor_160,
NoSun,
NoWind,
0,
4,
4.719,9.4,3.275,
2.409,9.4,3.275,
2.409,5.55,3.275,
4.719,5.55,3.275;

BuildingSurface:Detailed,
Floor_50,
Floor,
Bodenplatte,
F0_Office_9,
Outdoors,,
SunExposed,
WindExposed,
1,
4,
7.13,5.55,0,
4.82,5.55,0,
4.82,9.4,0,
7.13,9.4,0;

BuildingSurface:Detailed,
North_51,
Wall,
Aussenwand,
F0_Office_9,
Outdoors,,
SunExposed,
WindExposed,
0.5,
4,
7.13,9.4,0,
4.82,9.4,0,
4.82,9.4,3.275,
7.13,9.4,3.275;

BuildingSurface:Detailed,
East_52,
Wall,
Bürotrennwand,
F0_Office_9,
Surface,West_61,
NoSun,
NoWind,
0.5,
4,
7.13,9.4,3.274,
7.13,5.55,3.274,
7.13,5.55,0,
7.13,9.4,0;

BuildingSurface:Detailed,
South_53,
Wall,
BüroTrennwandFlur,
F0_Office_9,
Surface,North_74,
NoSun,
NoWind,
0.5,
4,
7.129,5.55,3.274,
4.819,5.55,3.274,
4.819,5.55,0,
7.129,5.55,0;

BuildingSurface:Detailed,
West_54,
Wall,
Bürotrennwand,
F0_Office_9,
Surface,East_45,
NoSun,
NoWind,
0.5,
4,
4.82,9.4,0,
4.82,5.55,0,
4.82,5.55,3.274,
4.82,9.4,3.274;

BuildingSurface:Detailed,
Roof_55,
Ceiling,
Geschossdecke_Rev,
F0_Office_9,
Surface,Floor_167,
NoSun,
NoWind,
0,
4,
7.129,9.4,3.275,
4.819,9.4,3.275,
4.819,5.55,3.275,
7.129,5.55,3.275;

BuildingSurface:Detailed,
Floor_57,
Floor,
Bodenplatte,
F0_Office_10,
Outdoors,,
SunExposed,
WindExposed,
1,
4,
9.54,5.55,0,
7.23,5.55,0,
7.23,9.4,0,
9.54,9.4,0;

BuildingSurface:Detailed,
North_58,
Wall,
Aussenwand,
F0_Office_10,
Outdoors,,
SunExposed,
WindExposed,
0.5,
4,
9.54,9.4,0,
7.23,9.4,0,
7.23,9.4,3.275,
9.54,9.4,3.275;

BuildingSurface:Detailed,
East_59,
Wall,
Bürotrennwand,
F0_Office_10,
Surface,West_68,
NoSun,
NoWind,
0.5,
4,
9.54,9.4,3.274,
9.54,5.55,3.274,
9.54,5.55,0,
9.54,9.4,0;

BuildingSurface:Detailed,
South_60,
Wall,
BüroTrennwandFlur,
F0_Office_10,
Surface,North_75,
NoSun,
NoWind,
0.5,
4,
9.54,5.55,3.274,
7.229,5.55,3.274,
7.229,5.55,0,
9.54,5.55,0;

BuildingSurface:Detailed,
West_61,
Wall,
Bürotrennwand,
F0_Office_10,
Surface,East_52,
NoSun,
NoWind,
0.5,
4,
7.23,9.4,0,
7.23,5.55,0,
7.23,5.55,3.274,
7.23,9.4,3.274;

BuildingSurface:Detailed,
Roof_62,
Ceiling,
Geschossdecke_Rev,
F0_Office_10,
Surface,Floor_174,
NoSun,
NoWind,
0,
4,
9.54,9.4,3.275,
7.229,9.4,3.275,
7.229,5.55,3.275,
9.54,5.55,3.275;

BuildingSurface:Detailed,
Floor_64,
Floor,
Bodenplatte,
F0_Office_11,
Outdoors,,
SunExposed,
WindExposed,
1,
4,
11.95,5.55,0,
9.64,5.55,0,
9.64,9.4,0,
11.95,9.4,0;

BuildingSurface:Detailed,
North_65,
Wall,
Aussenwand,
F0_Office_11,
Outdoors,,
SunExposed,
WindExposed,
0.5,
4,
11.95,9.4,0,
9.64,9.4,0,
9.64,9.4,3.275,
11.95,9.4,3.275;

BuildingSurface:Detailed,
East_66,
Wall,
BüroTrennwandFlur,
F0_Office_11,
Adiabatic,,
NoSun,
NoWind,
0.5,
4,
11.95,5.65,3.274,
11.95,5.55,3.274,
11.95,5.55,0,
11.95,5.65,0;

BuildingSurface:Detailed,
East_67,
Wall,
BürotrennwandKern,
F0_Office_11,
Surface,West_99,
NoSun,
NoWind,
0.5,
4,
11.95,9.4,3.274,
11.95,5.65,3.274,
11.95,5.65,0,
11.95,9.4,0;

BuildingSurface:Detailed,
South_67,
Wall,
BüroTrennwandFlur,
F0_Office_11,
Adiabatic,,
NoSun,
NoWind,
0.5,
4,
11.95,5.55,3.274,
11.949,5.55,3.274,
11.949,5.55,0,
11.95,5.55,0;

BuildingSurface:Detailed,
South_68,
Wall,
BüroTrennwandFlur,
F0_Office_11,
Surface,North_76,
NoSun,
NoWind,
0.5,
4,
11.949,5.55,3.274,
9.639,5.55,3.274,
9.639,5.55,0,
11.949,5.55,0;

BuildingSurface:Detailed,
West_68,
Wall,
Bürotrennwand,
F0_Office_11,
Surface,East_59,
NoSun,
NoWind,
0.5,
4,
9.64,9.4,0,
9.64,5.55,0,
9.64,5.55,3.274,
9.64,9.4,3.274;

BuildingSurface:Detailed,
Roof_69,
Ceiling,
Geschossdecke_Rev,
F0_Office_11,
Surface,Floor_181,
NoSun,
NoWind,
5.55112e-17,
4,
11.95,9.4,3.275,
9.639,9.4,3.275,
9.639,5.55,3.275,
11.95,5.55,3.275;

BuildingSurface:Detailed,
Floor_71,
Floor,
Bodenplatte,
F0_Corridor_12,
Outdoors,,
SunExposed,
WindExposed,
1,
4,
11.95,4,0,
0,4,0,
0,5.4,0,
11.95,5.4,0;

BuildingSurface:Detailed,
North_77,
Wall,
BüroTrennwandFlur,
F0_Corridor_12,
Adiabatic,,
NoSun,
NoWind,
0.5,
4,
2.409,5.4,0,
2.309,5.4,0,
2.309,5.4,3.274,
2.409,5.4,3.274;

BuildingSurface:Detailed,
North_78,
Wall,
BüroTrennwandFlur,
F0_Corridor_12,
Adiabatic,,
NoSun,
NoWind,
0.5,
4,
7.229,5.4,0,
7.129,5.4,0,
7.129,5.4,3.274,
7.229,5.4,3.274;

BuildingSurface:Detailed,
North_79,
Wall,
BüroTrennwandFlur,
F0_Corridor_12,
Adiabatic,,
NoSun,
NoWind,
0.5,
4,
9.639,5.4,0,
9.54,5.4,0,
9.54,5.4,3.274,
9.639,5.4,3.274;

BuildingSurface:Detailed,
North_80,
Wall,
BüroTrennwandFlur,
F0_Corridor_12,
Adiabatic,,
NoSun,
NoWind,
0.5,
4,
4.819,5.4,0,
4.719,5.4,0,
4.719,5.4,3.274,
4.819,5.4,3.274;

BuildingSurface:Detailed,
North_72,
Wall,
BüroTrennwandFlur,
F0_Corridor_12,
Surface,South_39,
NoSun,
NoWind,
0.5,
4,
2.309,5.4,0,
0,5.4,0,
0,5.4,3.274,
2.309,5.4,3.274;

BuildingSurface:Detailed,
North_73,
Wall,
BüroTrennwandFlur,
F0_Corridor_12,
Surface,South_46,
NoSun,
NoWind,
0.5,
4,
4.719,5.4,0,
2.409,5.4,0,
2.409,5.4,3.274,
4.719,5.4,3.274;

BuildingSurface:Detailed,
North_74,
Wall,
BüroTrennwandFlur,
F0_Corridor_12,
Surface,South_53,
NoSun,
NoWind,
0.5,
4,
7.129,5.4,0,
4.819,5.4,0,
4.819,5.4,3.274,
7.129,5.4,3.274;

BuildingSurface:Detailed,
North_75,
Wall,
BüroTrennwandFlur,
F0_Corridor_12,
Surface,South_60,
NoSun,
NoWind,
0.5,
4,
9.54,5.4,0,
7.229,5.4,0,
7.229,5.4,3.274,
9.54,5.4,3.274;

BuildingSurface:Detailed,
North_76,
Wall,
BüroTrennwandFlur,
F0_Corridor_12,
Surface,South_68,
NoSun,
NoWind,
0.5,
4,
11.949,5.4,0,
9.639,5.4,0,
9.639,5.4,3.274,
11.949,5.4,3.274;

BuildingSurface:Detailed,
East_73,
Wall,
BürotrennwandKern,
F0_Corridor_12,
Surface,West_93,
NoSun,
NoWind,
0.5,
4,
11.95,5.4,3.274,
11.95,4,3.274,
11.95,4,0,
11.95,5.4,0;

BuildingSurface:Detailed,
South_79,
Wall,
BüroTrennwandFlur,
F0_Corridor_12,
Adiabatic,,
NoSun,
NoWind,
0.5,
4,
4.819,4,3.274,
4.719,4,3.274,
4.719,4,0,
4.819,4,0;

BuildingSurface:Detailed,
South_80,
Wall,
BüroTrennwandFlur,
F0_Corridor_12,
Adiabatic,,
NoSun,
NoWind,
0.5,
4,
9.639,4,3.274,
9.54,4,3.274,
9.54,4,0,
9.639,4,0;

BuildingSurface:Detailed,
South_81,
Wall,
BüroTrennwandFlur,
F0_Corridor_12,
Adiabatic,,
NoSun,
NoWind,
0.5,
4,
7.229,4,3.274,
7.129,4,3.274,
7.129,4,0,
7.229,4,0;

BuildingSurface:Detailed,
South_82,
Wall,
BüroTrennwandFlur,
F0_Corridor_12,
Adiabatic,,
NoSun,
NoWind,
0.5,
4,
2.409,4,3.274,
2.309,4,3.274,
2.309,4,0,
2.409,4,0;

BuildingSurface:Detailed,
South_74,
Wall,
BüroTrennwandFlur,
F0_Corridor_12,
Surface,North_3,
NoSun,
NoWind,
0.5,
4,
2.309,4,3.274,
0,4,3.274,
0,4,0,
2.309,4,0;

BuildingSurface:Detailed,
South_75,
Wall,
BüroTrennwandFlur,
F0_Corridor_12,
Surface,North_9,
NoSun,
NoWind,
0.5,
4,
4.719,4,3.274,
2.409,4,3.274,
2.409,4,0,
4.719,4,0;

BuildingSurface:Detailed,
South_76,
Wall,
BüroTrennwandFlur,
F0_Corridor_12,
Surface,North_16,
NoSun,
NoWind,
0.5,
4,
7.129,4,3.274,
4.819,4,3.274,
4.819,4,0,
7.129,4,0;

BuildingSurface:Detailed,
South_77,
Wall,
BüroTrennwandFlur,
F0_Corridor_12,
Surface,North_23,
NoSun,
NoWind,
0.5,
4,
9.54,4,3.274,
7.229,4,3.274,
7.229,4,0,
9.54,4,0;

BuildingSurface:Detailed,
South_78,
Wall,
BüroTrennwandFlur,
F0_Corridor_12,
Surface,North_31,
NoSun,
NoWind,
0.5,
4,
11.949,4,3.274,
9.639,4,3.274,
9.639,4,0,
11.949,4,0;

BuildingSurface:Detailed,
West_75,
Wall,
BüroTrennwandFlur,
F0_Corridor_12,
Adiabatic,,
NoSun,
NoWind,
0.5,
4,
0,4.1,0,
0,4,0,
0,4,3.274,
0,4.1,3.274;

BuildingSurface:Detailed,
West_76,
Wall,
BürotrennwandKern,
F0_Corridor_12,
Surface,South_1054,
NoSun,
NoWind,
0.5,
4,
0,5.4,0,
0,4.1,0,
0,4.1,3.274,
0,5.4,3.274;

BuildingSurface:Detailed,
Roof_76,
Ceiling,
Geschossdecke_Rev,
F0_Corridor_12,
Surface,Floor_188,
NoSun,
NoWind,
0,
4,
11.949,5.4,3.275,
0,5.4,3.275,
0,4,3.275,
11.949,4,3.275;

BuildingSurface:Detailed,
Floor_119,
Floor,
Geschossdecke,
F0_Office_20,
Surface,Roof_7,
NoSun,
NoWind,
1,
4,
2.309,0,3.575,
0,0,3.575,
0,3.85,3.575,
2.309,3.85,3.575;

BuildingSurface:Detailed,
North_120,
Wall,
BüroTrennwandFlur,
F0_Office_20,
Surface,South_191,
NoSun,
NoWind,
0.5,
4,
2.309,3.85,3.574,
0,3.85,3.574,
0,3.85,6.849,
2.309,3.85,6.849;

BuildingSurface:Detailed,
East_121,
Wall,
Bürotrennwand,
F0_Office_20,
Surface,West_129,
NoSun,
NoWind,
0.5,
4,
2.31,3.85,6.849,
2.31,0,6.849,
2.31,0,3.574,
2.31,3.85,3.574;

BuildingSurface:Detailed,
South_122,
Wall,
Aussenwand,
F0_Office_20,
Outdoors,,
SunExposed,
WindExposed,
0.5,
4,
0,0,3.575,
2.31,0,3.575,
2.31,0,6.85,
0,0,6.85;

BuildingSurface:Detailed,
West_123,
Wall,
Bürotrennwand,
F0_Office_20,
Surface,South_939,
NoSun,
NoWind,
0.5,
4,
0,3.85,3.574,
0,0,3.574,
0,0,6.849,
0,3.85,6.849;

BuildingSurface:Detailed,
Roof_124,
Roof,
Geschossdecke_Rev,
F0_Office_20,
Surface,Floor_236,
NoSun,
NoWind,
0,
4,
2.309,3.85,6.85,
0,3.85,6.85,
0,0,6.85,
2.309,0,6.85;

BuildingSurface:Detailed,
Floor_125,
Floor,
Geschossdecke,
F0_Office_21,
Surface,Roof_13,
NoSun,
NoWind,
1,
4,
4.719,0,3.575,
2.409,0,3.575,
2.409,3.85,3.575,
4.719,3.85,3.575;

BuildingSurface:Detailed,
North_126,
Wall,
BüroTrennwandFlur,
F0_Office_21,
Surface,South_192,
NoSun,
NoWind,
0.5,
4,
4.719,3.85,3.574,
2.409,3.85,3.574,
2.409,3.85,6.849,
4.719,3.85,6.849;

BuildingSurface:Detailed,
East_127,
Wall,
Bürotrennwand,
F0_Office_21,
Surface,West_136,
NoSun,
NoWind,
0.5,
4,
4.72,3.85,6.849,
4.72,0,6.849,
4.72,0,3.574,
4.72,3.85,3.574;

BuildingSurface:Detailed,
South_128,
Wall,
Aussenwand,
F0_Office_21,
Outdoors,,
SunExposed,
WindExposed,
0.5,
4,
2.41,0,3.575,
4.72,0,3.575,
4.72,0,6.85,
2.41,0,6.85;

BuildingSurface:Detailed,
West_129,
Wall,
Bürotrennwand,
F0_Office_21,
Surface,East_121,
NoSun,
NoWind,
0.5,
4,
2.41,3.85,3.574,
2.41,0,3.574,
2.41,0,6.849,
2.41,3.85,6.849;

BuildingSurface:Detailed,
Roof_130,
Ceiling,
Geschossdecke_Rev,
F0_Office_21,
Surface,Floor_242,
NoSun,
NoWind,
0,
4,
4.719,3.85,6.85,
2.409,3.85,6.85,
2.409,0,6.85,
4.719,0,6.85;

BuildingSurface:Detailed,
Floor_132,
Floor,
Geschossdecke,
F0_Office_22,
Surface,Roof_20,
NoSun,
NoWind,
1,
4,
7.129,0,3.575,
4.819,0,3.575,
4.819,3.85,3.575,
7.129,3.85,3.575;

BuildingSurface:Detailed,
North_133,
Wall,
BüroTrennwandFlur,
F0_Office_22,
Surface,South_193,
NoSun,
NoWind,
0.5,
4,
7.129,3.85,3.574,
4.819,3.85,3.574,
4.819,3.85,6.849,
7.129,3.85,6.849;

BuildingSurface:Detailed,
East_134,
Wall,
Bürotrennwand,
F0_Office_22,
Surface,West_143,
NoSun,
NoWind,
0.5,
4,
7.13,3.85,6.849,
7.13,0,6.849,
7.13,0,3.574,
7.13,3.85,3.574;

BuildingSurface:Detailed,
South_135,
Wall,
Aussenwand,
F0_Office_22,
Outdoors,,
SunExposed,
WindExposed,
0.5,
4,
4.82,0,3.575,
7.13,0,3.575,
7.13,0,6.85,
4.82,0,6.85;

BuildingSurface:Detailed,
West_136,
Wall,
Bürotrennwand,
F0_Office_22,
Surface,East_127,
NoSun,
NoWind,
0.5,
4,
4.82,3.85,3.574,
4.82,0,3.574,
4.82,0,6.849,
4.82,3.85,6.849;

BuildingSurface:Detailed,
Roof_137,
Ceiling,
Geschossdecke_Rev,
F0_Office_22,
Surface,Floor_249,
NoSun,
NoWind,
0,
4,
7.129,3.85,6.85,
4.819,3.85,6.85,
4.819,0,6.85,
7.129,0,6.85;

BuildingSurface:Detailed,
Floor_139,
Floor,
Geschossdecke,
F0_Office_23,
Surface,Roof_27,
NoSun,
NoWind,
1,
4,
9.54,0,3.575,
7.229,0,3.575,
7.229,3.85,3.575,
9.54,3.85,3.575;

BuildingSurface:Detailed,
North_140,
Wall,
BüroTrennwandFlur,
F0_Office_23,
Surface,South_194,
NoSun,
NoWind,
0.5,
4,
9.54,3.85,3.574,
7.229,3.85,3.574,
7.229,3.85,6.849,
9.54,3.85,6.849;

BuildingSurface:Detailed,
East_141,
Wall,
Bürotrennwand,
F0_Office_23,
Surface,West_150,
NoSun,
NoWind,
0.5,
4,
9.54,3.85,6.849,
9.54,0,6.849,
9.54,0,3.574,
9.54,3.85,3.574;

BuildingSurface:Detailed,
South_142,
Wall,
Aussenwand,
F0_Office_23,
Outdoors,,
SunExposed,
WindExposed,
0.5,
4,
7.23,0,3.575,
9.54,0,3.575,
9.54,0,6.85,
7.23,0,6.85;

BuildingSurface:Detailed,
West_143,
Wall,
Bürotrennwand,
F0_Office_23,
Surface,East_134,
NoSun,
NoWind,
0.5,
4,
7.23,3.85,3.574,
7.23,0,3.574,
7.23,0,6.849,
7.23,3.85,6.849;

BuildingSurface:Detailed,
Roof_144,
Ceiling,
Geschossdecke_Rev,
F0_Office_23,
Surface,Floor_256,
NoSun,
NoWind,
0,
4,
9.54,3.85,6.85,
7.229,3.85,6.85,
7.229,0,6.85,
9.54,0,6.85;

BuildingSurface:Detailed,
Floor_146,
Floor,
Geschossdecke,
F0_Office_24,
Surface,Roof_34,
NoSun,
NoWind,
1,
4,
11.95,0,3.575,
9.639,0,3.575,
9.639,3.85,3.575,
11.95,3.85,3.575;

BuildingSurface:Detailed,
North_147,
Wall,
BüroTrennwandFlur,
F0_Office_24,
Adiabatic,,
NoSun,
NoWind,
0.5,
4,
11.95,3.85,3.574,
11.949,3.85,3.574,
11.949,3.85,6.849,
11.95,3.85,6.849;

BuildingSurface:Detailed,
North_148,
Wall,
BüroTrennwandFlur,
F0_Office_24,
Surface,South_195,
NoSun,
NoWind,
0.5,
4,
11.949,3.85,3.574,
9.639,3.85,3.574,
9.639,3.85,6.849,
11.949,3.85,6.849;

BuildingSurface:Detailed,
East_148,
Wall,
BüroTrennwandFlur,
F0_Office_24,
Adiabatic,,
NoSun,
NoWind,
0.5,
4,
11.95,3.85,6.849,
11.95,3.75,6.849,
11.95,3.75,3.574,
11.95,3.85,3.574;

BuildingSurface:Detailed,
East_149,
Wall,
BürotrennwandKern,
F0_Office_24,
Surface,West_198,
NoSun,
NoWind,
0.5,
4,
11.95,3.75,6.849,
11.95,0,6.849,
11.95,0,3.574,
11.95,3.75,3.574;

BuildingSurface:Detailed,
South_149,
Wall,
Aussenwand,
F0_Office_24,
Outdoors,,
SunExposed,
WindExposed,
0.5,
4,
9.64,0,3.575,
11.95,0,3.575,
11.95,0,6.85,
9.64,0,6.85;

BuildingSurface:Detailed,
West_150,
Wall,
Bürotrennwand,
F0_Office_24,
Surface,East_141,
NoSun,
NoWind,
0.5,
4,
9.64,3.85,3.574,
9.64,0,3.574,
9.64,0,6.849,
9.64,3.85,6.849;

BuildingSurface:Detailed,
Roof_151,
Ceiling,
Geschossdecke_Rev,
F0_Office_24,
Surface,Floor_263,
NoSun,
NoWind,
0,
4,
11.95,3.85,6.85,
9.639,3.85,6.85,
9.639,0,6.85,
11.95,0,6.85;

BuildingSurface:Detailed,
Floor_153,
Floor,
Geschossdecke,
F0_Office_25,
Surface,Roof_41,
NoSun,
NoWind,
1,
4,
2.309,5.55,3.575,
0,5.55,3.575,
0,9.4,3.575,
2.309,9.4,3.575;

BuildingSurface:Detailed,
North_154,
Wall,
Aussenwand,
F0_Office_25,
Outdoors,,
SunExposed,
WindExposed,
0.5,
4,
2.309,9.4,3.574,
0,9.4,3.574,
0,9.4,6.849,
2.309,9.4,6.849;

BuildingSurface:Detailed,
East_155,
Wall,
Bürotrennwand,
F0_Office_25,
Surface,West_164,
NoSun,
NoWind,
0.5,
4,
2.31,9.4,6.849,
2.31,5.55,6.849,
2.31,5.55,3.574,
2.31,9.4,3.574;

BuildingSurface:Detailed,
South_156,
Wall,
BüroTrennwandFlur,
F0_Office_25,
Surface,North_189,
NoSun,
NoWind,
0.5,
4,
2.309,5.55,6.849,
0,5.55,6.849,
0,5.55,3.574,
2.309,5.55,3.574;

BuildingSurface:Detailed,
West_157,
Wall,
BüroTrennwandFlur,
F0_Office_25,
Adiabatic,,
NoSun,
NoWind,
0.5,
4,
0,9.4,3.574,
0,9.399,3.574,
0,9.399,6.849,
0,9.4,6.849;

BuildingSurface:Detailed,
West_158,
Wall,
BüroTrennwandFlur,
F0_Office_25,
Surface,South_1059,
NoSun,
NoWind,
0.5,
4,
0,9.399,3.574,
0,5.55,3.574,
0,5.55,6.849,
0,9.399,6.849;

BuildingSurface:Detailed,
Roof_158,
Ceiling,
Geschossdecke_Rev,
F0_Office_25,
Surface,Floor_270,
NoSun,
NoWind,
0,
4,
2.309,9.4,6.85,
0,9.4,6.85,
0,5.55,6.85,
2.309,5.55,6.85;

BuildingSurface:Detailed,
Floor_160,
Floor,
Geschossdecke,
F0_Office_26,
Surface,Roof_48,
NoSun,
NoWind,
1,
4,
4.719,5.55,3.575,
2.409,5.55,3.575,
2.409,9.4,3.575,
4.719,9.4,3.575;

BuildingSurface:Detailed,
North_161,
Wall,
Aussenwand,
F0_Office_26,
Outdoors,,
SunExposed,
WindExposed,
0.5,
4,
4.72,9.4,3.575,
2.41,9.4,3.575,
2.41,9.4,6.85,
4.72,9.4,6.85;

BuildingSurface:Detailed,
East_162,
Wall,
Bürotrennwand,
F0_Office_26,
Surface,West_171,
NoSun,
NoWind,
0.5,
4,
4.72,9.4,6.849,
4.72,5.55,6.849,
4.72,5.55,3.574,
4.72,9.4,3.574;

BuildingSurface:Detailed,
South_163,
Wall,
BüroTrennwandFlur,
F0_Office_26,
Surface,North_190,
NoSun,
NoWind,
0.5,
4,
4.719,5.55,6.849,
2.409,5.55,6.849,
2.409,5.55,3.574,
4.719,5.55,3.574;

BuildingSurface:Detailed,
West_164,
Wall,
Bürotrennwand,
F0_Office_26,
Surface,East_155,
NoSun,
NoWind,
0.5,
4,
2.41,9.4,3.574,
2.41,5.55,3.574,
2.41,5.55,6.849,
2.41,9.4,6.849;

BuildingSurface:Detailed,
Roof_165,
Ceiling,
Geschossdecke_Rev,
F0_Office_26,
Surface,Floor_277,
NoSun,
NoWind,
0,
4,
4.719,9.4,6.85,
2.409,9.4,6.85,
2.409,5.55,6.85,
4.719,5.55,6.85;

BuildingSurface:Detailed,
Floor_167,
Floor,
Geschossdecke,
F0_Office_27,
Surface,Roof_55,
NoSun,
NoWind,
1,
4,
7.129,5.55,3.575,
4.819,5.55,3.575,
4.819,9.4,3.575,
7.129,9.4,3.575;

BuildingSurface:Detailed,
North_168,
Wall,
Aussenwand,
F0_Office_27,
Outdoors,,
SunExposed,
WindExposed,
0.5,
4,
7.13,9.4,3.575,
4.82,9.4,3.575,
4.82,9.4,6.85,
7.13,9.4,6.85;

BuildingSurface:Detailed,
East_169,
Wall,
Bürotrennwand,
F0_Office_27,
Surface,West_178,
NoSun,
NoWind,
0.5,
4,
7.13,9.4,6.849,
7.13,5.55,6.849,
7.13,5.55,3.574,
7.13,9.4,3.574;

BuildingSurface:Detailed,
South_170,
Wall,
BüroTrennwandFlur,
F0_Office_27,
Surface,North_191,
NoSun,
NoWind,
0.5,
4,
7.129,5.55,6.849,
4.819,5.55,6.849,
4.819,5.55,3.574,
7.129,5.55,3.574;

BuildingSurface:Detailed,
West_171,
Wall,
Bürotrennwand,
F0_Office_27,
Surface,East_162,
NoSun,
NoWind,
0.5,
4,
4.82,9.4,3.574,
4.82,5.55,3.574,
4.82,5.55,6.849,
4.82,9.4,6.849;

BuildingSurface:Detailed,
Roof_172,
Ceiling,
Geschossdecke_Rev,
F0_Office_27,
Surface,Floor_284,
NoSun,
NoWind,
0,
4,
7.129,9.4,6.85,
4.819,9.4,6.85,
4.819,5.55,6.85,
7.129,5.55,6.85;

BuildingSurface:Detailed,
Floor_174,
Floor,
Geschossdecke,
F0_Office_28,
Surface,Roof_62,
NoSun,
NoWind,
1,
4,
9.54,5.55,3.575,
7.229,5.55,3.575,
7.229,9.4,3.575,
9.54,9.4,3.575;

BuildingSurface:Detailed,
North_175,
Wall,
Aussenwand,
F0_Office_28,
Outdoors,,
SunExposed,
WindExposed,
0.5,
4,
9.54,9.4,3.575,
7.23,9.4,3.575,
7.23,9.4,6.85,
9.54,9.4,6.85;

BuildingSurface:Detailed,
East_176,
Wall,
Bürotrennwand,
F0_Office_28,
Surface,West_185,
NoSun,
NoWind,
0.5,
4,
9.54,9.4,6.849,
9.54,5.55,6.849,
9.54,5.55,3.574,
9.54,9.4,3.574;

BuildingSurface:Detailed,
South_177,
Wall,
BüroTrennwandFlur,
F0_Office_28,
Surface,North_192,
NoSun,
NoWind,
0.5,
4,
9.54,5.55,6.849,
7.229,5.55,6.849,
7.229,5.55,3.574,
9.54,5.55,3.574;

BuildingSurface:Detailed,
West_178,
Wall,
Bürotrennwand,
F0_Office_28,
Surface,East_169,
NoSun,
NoWind,
0.5,
4,
7.23,9.4,3.574,
7.23,5.55,3.574,
7.23,5.55,6.849,
7.23,9.4,6.849;

BuildingSurface:Detailed,
Roof_179,
Ceiling,
Geschossdecke_Rev,
F0_Office_28,
Surface,Floor_291,
NoSun,
NoWind,
0,
4,
9.54,9.4,6.85,
7.229,9.4,6.85,
7.229,5.55,6.85,
9.54,5.55,6.85;

BuildingSurface:Detailed,
Floor_181,
Floor,
Geschossdecke,
F0_Office_29,
Surface,Roof_69,
NoSun,
NoWind,
1,
4,
11.95,5.55,3.575,
9.639,5.55,3.575,
9.639,9.4,3.575,
11.95,9.4,3.575;

BuildingSurface:Detailed,
North_182,
Wall,
Aussenwand,
F0_Office_29,
Outdoors,,
SunExposed,
WindExposed,
0.5,
4,
11.95,9.4,3.575,
9.64,9.4,3.575,
9.64,9.4,6.85,
11.95,9.4,6.85;

BuildingSurface:Detailed,
East_183,
Wall,
BüroTrennwandFlur,
F0_Office_29,
Adiabatic,,
NoSun,
NoWind,
0.5,
4,
11.95,5.65,6.849,
11.95,5.55,6.849,
11.95,5.55,3.574,
11.95,5.65,3.574;

BuildingSurface:Detailed,
East_184,
Wall,
BürotrennwandKern,
F0_Office_29,
Surface,West_216,
NoSun,
NoWind,
0.5,
4,
11.95,9.4,6.849,
11.95,5.65,6.849,
11.95,5.65,3.574,
11.95,9.4,3.574;

BuildingSurface:Detailed,
South_184,
Wall,
BüroTrennwandFlur,
F0_Office_29,
Adiabatic,,
NoSun,
NoWind,
0.5,
4,
11.95,5.55,6.849,
11.949,5.55,6.849,
11.949,5.55,3.574,
11.95,5.55,3.574;

BuildingSurface:Detailed,
South_185,
Wall,
BüroTrennwandFlur,
F0_Office_29,
Surface,North_193,
NoSun,
NoWind,
0.5,
4,
11.949,5.55,6.849,
9.639,5.55,6.849,
9.639,5.55,3.574,
11.949,5.55,3.574;

BuildingSurface:Detailed,
West_185,
Wall,
Bürotrennwand,
F0_Office_29,
Surface,East_176,
NoSun,
NoWind,
0.5,
4,
9.64,9.4,3.574,
9.64,5.55,3.574,
9.64,5.55,6.849,
9.64,9.4,6.849;

BuildingSurface:Detailed,
Roof_186,
Ceiling,
Geschossdecke_Rev,
F0_Office_29,
Surface,Floor_298,
NoSun,
NoWind,
5.55112e-17,
4,
11.95,9.4,6.85,
9.639,9.4,6.85,
9.639,5.55,6.85,
11.95,5.55,6.85;

BuildingSurface:Detailed,
Floor_188,
Floor,
Geschossdecke,
F0_Corridor_30,
Surface,Roof_76,
NoSun,
NoWind,
1,
4,
11.949,4,3.575,
0,4,3.575,
0,5.4,3.575,
11.949,5.4,3.575;

BuildingSurface:Detailed,
North_194,
Wall,
BüroTrennwandFlur,
F0_Corridor_30,
Adiabatic,,
NoSun,
NoWind,
0.5,
4,
2.409,5.4,3.574,
2.309,5.4,3.574,
2.309,5.4,6.849,
2.409,5.4,6.849;

BuildingSurface:Detailed,
North_195,
Wall,
BüroTrennwandFlur,
F0_Corridor_30,
Adiabatic,,
NoSun,
NoWind,
0.5,
4,
7.229,5.4,3.574,
7.129,5.4,3.574,
7.129,5.4,6.849,
7.229,5.4,6.849;

BuildingSurface:Detailed,
North_196,
Wall,
BüroTrennwandFlur,
F0_Corridor_30,
Adiabatic,,
NoSun,
NoWind,
0.5,
4,
9.639,5.4,3.574,
9.54,5.4,3.574,
9.54,5.4,6.849,
9.639,5.4,6.849;

BuildingSurface:Detailed,
North_197,
Wall,
BüroTrennwandFlur,
F0_Corridor_30,
Adiabatic,,
NoSun,
NoWind,
0.5,
4,
4.819,5.4,3.574,
4.719,5.4,3.574,
4.719,5.4,6.849,
4.819,5.4,6.849;

BuildingSurface:Detailed,
North_189,
Wall,
BüroTrennwandFlur,
F0_Corridor_30,
Surface,South_156,
NoSun,
NoWind,
0.5,
4,
2.309,5.4,3.574,
0,5.4,3.574,
0,5.4,6.849,
2.309,5.4,6.849;

BuildingSurface:Detailed,
North_190,
Wall,
BüroTrennwandFlur,
F0_Corridor_30,
Surface,South_163,
NoSun,
NoWind,
0.5,
4,
4.719,5.4,3.574,
2.409,5.4,3.574,
2.409,5.4,6.849,
4.719,5.4,6.849;

BuildingSurface:Detailed,
North_191,
Wall,
BüroTrennwandFlur,
F0_Corridor_30,
Surface,South_170,
NoSun,
NoWind,
0.5,
4,
7.129,5.4,3.574,
4.819,5.4,3.574,
4.819,5.4,6.849,
7.129,5.4,6.849;

BuildingSurface:Detailed,
North_192,
Wall,
BüroTrennwandFlur,
F0_Corridor_30,
Surface,South_177,
NoSun,
NoWind,
0.5,
4,
9.54,5.4,3.574,
7.229,5.4,3.574,
7.229,5.4,6.849,
9.54,5.4,6.849;

BuildingSurface:Detailed,
North_193,
Wall,
BüroTrennwandFlur,
F0_Corridor_30,
Surface,South_185,
NoSun,
NoWind,
0.5,
4,
11.949,5.4,3.574,
9.639,5.4,3.574,
9.639,5.4,6.849,
11.949,5.4,6.849;

BuildingSurface:Detailed,
East_190,
Wall,
BürotrennwandKern,
F0_Corridor_30,
Surface,West_210,
NoSun,
NoWind,
0.5,
4,
11.95,5.4,6.849,
11.95,4,6.849,
11.95,4,3.574,
11.95,5.4,3.574;

BuildingSurface:Detailed,
South_196,
Wall,
BüroTrennwandFlur,
F0_Corridor_30,
Adiabatic,,
NoSun,
NoWind,
0.5,
4,
4.819,4,6.849,
4.719,4,6.849,
4.719,4,3.574,
4.819,4,3.574;

BuildingSurface:Detailed,
South_197,
Wall,
BüroTrennwandFlur,
F0_Corridor_30,
Adiabatic,,
NoSun,
NoWind,
0.5,
4,
9.639,4,6.849,
9.54,4,6.849,
9.54,4,3.574,
9.639,4,3.574;

BuildingSurface:Detailed,
South_198,
Wall,
BüroTrennwandFlur,
F0_Corridor_30,
Adiabatic,,
NoSun,
NoWind,
0.5,
4,
7.229,4,6.849,
7.129,4,6.849,
7.129,4,3.574,
7.229,4,3.574;

BuildingSurface:Detailed,
South_199,
Wall,
BüroTrennwandFlur,
F0_Corridor_30,
Adiabatic,,
NoSun,
NoWind,
0.5,
4,
2.409,4,6.849,
2.309,4,6.849,
2.309,4,3.574,
2.409,4,3.574;

BuildingSurface:Detailed,
South_191,
Wall,
BüroTrennwandFlur,
F0_Corridor_30,
Surface,North_120,
NoSun,
NoWind,
0.5,
4,
2.309,4,6.849,
0,4,6.849,
0,4,3.574,
2.309,4,3.574;

BuildingSurface:Detailed,
South_192,
Wall,
BüroTrennwandFlur,
F0_Corridor_30,
Surface,North_126,
NoSun,
NoWind,
0.5,
4,
4.719,4,6.849,
2.409,4,6.849,
2.409,4,3.574,
4.719,4,3.574;

BuildingSurface:Detailed,
South_193,
Wall,
BüroTrennwandFlur,
F0_Corridor_30,
Surface,North_133,
NoSun,
NoWind,
0.5,
4,
7.129,4,6.849,
4.819,4,6.849,
4.819,4,3.574,
7.129,4,3.574;

BuildingSurface:Detailed,
South_194,
Wall,
BüroTrennwandFlur,
F0_Corridor_30,
Surface,North_140,
NoSun,
NoWind,