!    =========== Created by BIM HVACTool for Energy Plus ===========
!    =========== VERSION, 8.3.0 ===========

Version,
8.3;

SimulationControl,
No,
No,
No,
No,
Yes,
No,
1;

Building,
BIM HVACTool Building,
0,
Country,
0.400000005960464,
0.0500000007450581,
FullExterior,
25,
6;

ShadowCalculation,
AverageOverDaysInFrequency,
20,
15000,
SutherlandHodgman,
SimpleSkyDiffuseModeling;

SurfaceConvectionAlgorithm:Inside,
TARP;

SurfaceConvectionAlgorithm:Outside,
DOE-2;

HeatBalanceAlgorithm,
ConductionTransferFunction,
200,
0.100000001490116,
1000;

Timestep,
10;

ZoneAirContaminantBalance,
No,
,
No,
;

Site:Location,
Berlin,
51.0719985961914,
14.9460000991821,
1,
0;

RunPeriod,
RunPeriod,
1,
1,
12,
31,
UseWeatherFile,
No,
Yes,
No,
No,
No,
1,
Yes;

SizingPeriod:DesignDay,
Summer Design Day,
7,
15,
SummerDesignDay,
30,
10,
DefaultMultipliers,
,
WetBulb,
18.4041957855225,
,
0.013340736666418,
64271.7732425476,
0,
100582.3984375,
0,
0,
No,
No,
Yes,
ASHRAEClearSky;

SizingPeriod:DesignDay,
Winter Design Day,
1,
15,
WinterDesignDay,
-14,
0,
DefaultMultipliers,
,
WetBulb,
-22.0990943908691,
,
0.000649803537065225,
-12467.935293811,
0,
100582.3984375,
0,
0,
No,
No,
No,
ASHRAEClearSky;

Site:GroundTemperature:BuildingSurface,
10,
10,
10,
10,
10,
10,
10,
10,
10,
10,
10,
10;

Site:GroundTemperature:Deep,
10,
10,
10,
10,
10,
10,
10,
10,
10,
10,
10,
10;

ZoneControl:Thermostat,
EG-10Thermo,
EG-10,
controlDualSetpointSchedule,
ThermostatSetpoint:DualSetpoint,
EG-10ThermoSetpoint;

ZoneControl:Thermostat,
EG-11Thermo,
EG-11,
controlDualSetpointSchedule,
ThermostatSetpoint:DualSetpoint,
EG-10ThermoSetpoint;

ZoneControl:Thermostat,
EG-12Thermo,
EG-12,
controlDualSetpointSchedule,
ThermostatSetpoint:DualSetpoint,
EG-10ThermoSetpoint;

ZoneControl:Thermostat,
EG-13Thermo,
EG-13,
controlDualSetpointSchedule,
ThermostatSetpoint:DualSetpoint,
EG-10ThermoSetpoint;

ZoneControl:Thermostat,
EG-17Thermo,
EG-17,
controlDualSetpointSchedule,
ThermostatSetpoint:DualSetpoint,
EG-10ThermoSetpoint;

ZoneControl:Thermostat,
EG-03Thermo,
EG-03,
controlDualSetpointSchedule,
ThermostatSetpoint:DualSetpoint,
EG-10ThermoSetpoint;

ZoneControl:Thermostat,
EG-06Thermo,
EG-06,
controlDualSetpointSchedule,
ThermostatSetpoint:DualSetpoint,
EG-10ThermoSetpoint;

ZoneControl:Thermostat,
EG-05Thermo,
EG-05,
controlDualSetpointSchedule,
ThermostatSetpoint:DualSetpoint,
EG-05ThermoSetpoint;

ZoneControl:Thermostat,
EG-16Thermo,
EG-16,
controlDualSetpointSchedule,
ThermostatSetpoint:DualSetpoint,
EG-10ThermoSetpoint;

ZoneControl:Thermostat,
EG-29Thermo,
EG-29,
controlDualSetpointSchedule,
ThermostatSetpoint:DualSetpoint,
EG-10ThermoSetpoint;

ZoneControl:Thermostat,
EG-28Thermo,
EG-28,
controlDualSetpointSchedule,
ThermostatSetpoint:DualSetpoint,
EG-10ThermoSetpoint;

ZoneControl:Thermostat,
EG-27Thermo,
EG-27,
controlDualSetpointSchedule,
ThermostatSetpoint:DualSetpoint,
EG-10ThermoSetpoint;

ZoneControl:Thermostat,
EG-14Thermo,
EG-14,
controlDualSetpointSchedule,
ThermostatSetpoint:DualSetpoint,
EG-10ThermoSetpoint;

ZoneControl:Thermostat,
EG-01Thermo,
EG-01,
controlDualSetpointSchedule,
ThermostatSetpoint:DualSetpoint,
EG-10ThermoSetpoint;

ZoneControl:Thermostat,
EG-18Thermo,
EG-18,
controlDualSetpointSchedule,
ThermostatSetpoint:DualSetpoint,
EG-05ThermoSetpoint;

ZoneControl:Thermostat,
EG-19Thermo,
EG-19,
controlDualSetpointSchedule,
ThermostatSetpoint:DualSetpoint,
EG-05ThermoSetpoint;

ZoneControl:Thermostat,
EG-20Thermo,
EG-20,
controlDualSetpointSchedule,
ThermostatSetpoint:DualSetpoint,
EG-05ThermoSetpoint;

ZoneControl:Thermostat,
EG-32Thermo,
EG-32,
controlDualSetpointSchedule,
ThermostatSetpoint:DualSetpoint,
EG-10ThermoSetpoint;

ZoneControl:Thermostat,
EG-15Thermo,
EG-15,
controlDualSetpointSchedule,
ThermostatSetpoint:DualSetpoint,
EG-10ThermoSetpoint;

ZoneControl:Thermostat,
EG-21Thermo,
EG-21,
controlDualSetpointSchedule,
ThermostatSetpoint:DualSetpoint,
EG-10ThermoSetpoint;

ZoneControl:Thermostat,
EG-22Thermo,
EG-22,
controlDualSetpointSchedule,
ThermostatSetpoint:DualSetpoint,
EG-10ThermoSetpoint;

ZoneControl:Thermostat,
EG-30Thermo,
EG-30,
controlDualSetpointSchedule,
ThermostatSetpoint:DualSetpoint,
EG-10ThermoSetpoint;

ZoneControl:Thermostat,
EG-31Thermo,
EG-31,
controlDualSetpointSchedule,
ThermostatSetpoint:DualSetpoint,
EG-10ThermoSetpoint;

ZoneControl:Thermostat,
EG-08Thermo,
EG-08,
controlDualSetpointSchedule,
ThermostatSetpoint:DualSetpoint,
EG-08ThermoSetpoint;

ZoneControl:Thermostat,
EG-09Thermo,
EG-09,
controlDualSetpointSchedule,
ThermostatSetpoint:DualSetpoint,
EG-08ThermoSetpoint;

ZoneControl:Thermostat,
EG-07Thermo,
EG-07,
controlDualSetpointSchedule,
ThermostatSetpoint:DualSetpoint,
EG-07ThermoSetpoint;

ZoneControl:Thermostat,
EG-02Thermo,
EG-02,
controlDualSetpointSchedule,
ThermostatSetpoint:DualSetpoint,
EG-10ThermoSetpoint;

ZoneControl:Thermostat,
EG-23Thermo,
EG-23,
controlDualSetpointSchedule,
ThermostatSetpoint:DualSetpoint,
EG-10ThermoSetpoint;

ZoneControl:Thermostat,
EG-24Thermo,
EG-24,
controlDualSetpointSchedule,
ThermostatSetpoint:DualSetpoint,
EG-10ThermoSetpoint;

ZoneControl:Thermostat,
EG-26Thermo,
EG-26,
controlDualSetpointSchedule,
ThermostatSetpoint:DualSetpoint,
EG-10ThermoSetpoint;

ZoneControl:Thermostat,
EG-25Thermo,
EG-25,
controlDualSetpointSchedule,
ThermostatSetpoint:DualSetpoint,
EG-25ThermoSetpoint;

ZoneControl:Thermostat,
OG-06Thermo,
OG-06,
controlDualSetpointSchedule,
ThermostatSetpoint:DualSetpoint,
EG-05ThermoSetpoint;

ZoneControl:Thermostat,
OG-07Thermo,
OG-07,
controlDualSetpointSchedule,
ThermostatSetpoint:DualSetpoint,
EG-10ThermoSetpoint;

ZoneControl:Thermostat,
OG-10Thermo,
OG-10,
controlDualSetpointSchedule,
ThermostatSetpoint:DualSetpoint,
EG-10ThermoSetpoint;

ZoneControl:Thermostat,
OG-09Thermo,
OG-09,
controlDualSetpointSchedule,
ThermostatSetpoint:DualSetpoint,
EG-10ThermoSetpoint;

ZoneControl:Thermostat,
OG-08Thermo,
OG-08,
controlDualSetpointSchedule,
ThermostatSetpoint:DualSetpoint,
EG-10ThermoSetpoint;

ZoneControl:Thermostat,
OG-12Thermo,
OG-12,
controlDualSetpointSchedule,
ThermostatSetpoint:DualSetpoint,
EG-10ThermoSetpoint;

ZoneControl:Thermostat,
OG-11Thermo,
OG-11,
controlDualSetpointSchedule,
ThermostatSetpoint:DualSetpoint,
EG-10ThermoSetpoint;

ZoneControl:Thermostat,
OG-05Thermo,
OG-05,
controlDualSetpointSchedule,
ThermostatSetpoint:DualSetpoint,
EG-05ThermoSetpoint;

ZoneControl:Thermostat,
OG-04Thermo,
OG-04,
controlDualSetpointSchedule,
ThermostatSetpoint:DualSetpoint,
EG-05ThermoSetpoint;

ZoneControl:Thermostat,
OG-03Thermo,
OG-03,
controlDualSetpointSchedule,
ThermostatSetpoint:DualSetpoint,
EG-05ThermoSetpoint;

ZoneControl:Thermostat,
OG-17Thermo,
OG-17,
controlDualSetpointSchedule,
ThermostatSetpoint:DualSetpoint,
EG-10ThermoSetpoint;

ZoneControl:Thermostat,
OG-24Thermo,
OG-24,
controlDualSetpointSchedule,
ThermostatSetpoint:DualSetpoint,
EG-10ThermoSetpoint;

ZoneControl:Thermostat,
OG-23Thermo,
OG-23,
controlDualSetpointSchedule,
ThermostatSetpoint:DualSetpoint,
EG-10ThermoSetpoint;

ZoneControl:Thermostat,
OG-02Thermo,
OG-02,
controlDualSetpointSchedule,
ThermostatSetpoint:DualSetpoint,
EG-25ThermoSetpoint;

ZoneControl:Thermostat,
OG-20Thermo,
OG-20,
controlDualSetpointSchedule,
ThermostatSetpoint:DualSetpoint,
EG-10ThermoSetpoint;

ZoneControl:Thermostat,
OG-18Thermo,
OG-18,
controlDualSetpointSchedule,
ThermostatSetpoint:DualSetpoint,
EG-10ThermoSetpoint;

ZoneControl:Thermostat,
OG-14Thermo,
OG-14,
controlDualSetpointSchedule,
ThermostatSetpoint:DualSetpoint,
EG-05ThermoSetpoint;

ZoneControl:Thermostat,
OG-15Thermo,
OG-15,
controlDualSetpointSchedule,
ThermostatSetpoint:DualSetpoint,
EG-05ThermoSetpoint;

ZoneControl:Thermostat,
OG-16Thermo,
OG-16,
controlDualSetpointSchedule,
ThermostatSetpoint:DualSetpoint,
EG-05ThermoSetpoint;

ZoneControl:Thermostat,
OG-01Thermo,
OG-01,
controlDualSetpointSchedule,
ThermostatSetpoint:DualSetpoint,
EG-10ThermoSetpoint;

ZoneControl:Thermostat,
OG-22Thermo,
OG-22,
controlDualSetpointSchedule,
ThermostatSetpoint:DualSetpoint,
EG-10ThermoSetpoint;

ZoneControl:Thermostat,
OG-21Thermo,
OG-21,
controlDualSetpointSchedule,
ThermostatSetpoint:DualSetpoint,
EG-25ThermoSetpoint;

ZoneControl:Thermostat,
OG-19Thermo,
OG-19,
controlDualSetpointSchedule,
ThermostatSetpoint:DualSetpoint,
EG-10ThermoSetpoint;

ZoneControl:Thermostat,
DG-04Thermo,
DG-04,
controlDualSetpointSchedule,
ThermostatSetpoint:DualSetpoint,
EG-10ThermoSetpoint;

ZoneControl:Thermostat,
DG-06Thermo,
DG-06,
controlDualSetpointSchedule,
ThermostatSetpoint:DualSetpoint,
EG-10ThermoSetpoint;

ZoneControl:Thermostat,
DG-02Thermo,
DG-02,
controlDualSetpointSchedule,
ThermostatSetpoint:DualSetpoint,
EG-10ThermoSetpoint;

ZoneControl:Thermostat,
DG-03Thermo,
DG-03,
controlDualSetpointSchedule,
ThermostatSetpoint:DualSetpoint,
EG-10ThermoSetpoint;

ZoneControl:Thermostat,
DG-01Thermo,
DG-01,
controlDualSetpointSchedule,
ThermostatSetpoint:DualSetpoint,
EG-10ThermoSetpoint;

ThermostatSetpoint:DualSetpoint,
EG-10ThermoSetpoint,
Heizsollwerttemperatur01,
Kuehlsollwerttemperatur01;

ThermostatSetpoint:DualSetpoint,
EG-05ThermoSetpoint,
Heizsollwerttemperatur08,
Kuehlsollwerttemperatur08;

ThermostatSetpoint:DualSetpoint,
EG-08ThermoSetpoint,
Heizsollwerttemperatur14,
Kuehlsollwerttemperatur14;

ThermostatSetpoint:DualSetpoint,
EG-07ThermoSetpoint,
Heizsollwerttemperatur12,
Kuehlsollwerttemperatur12;

ThermostatSetpoint:DualSetpoint,
EG-25ThermoSetpoint,
Heizsollwerttemperatur06,
Kuehlsollwerttemperatur06;

ZoneHVAC:IdealLoadsAirSystem,
EG-10Ideal,
On,
EG-10IdealAirIn,
,
41,
14,
0.0147577169249135,
0.00799370481074886,
NoLimit,
0,
0,
NoLimit,
0,
0,
,
,
ConstantSensibleHeatRatio,
0.7,
None,
,
,
None,
NoEconomizer,
None,
0.7,
0.65;

ZoneHVAC:IdealLoadsAirSystem,
EG-11Ideal,
On,
EG-11IdealAirIn,
,
41,
14,
0.0147577169249135,
0.00799370481074886,
NoLimit,
0,
0,
NoLimit,
0,
0,
,
,
ConstantSensibleHeatRatio,
0.7,
None,
,
,
None,
NoEconomizer,
None,
0.7,
0.65;

ZoneHVAC:IdealLoadsAirSystem,
EG-12Ideal,
On,
EG-12IdealAirIn,
,
41,
14,
0.0147577169249135,
0.00799370481074886,
NoLimit,
0,
0,
NoLimit,
0,
0,
,
,
ConstantSensibleHeatRatio,
0.7,
None,
,
,
None,
NoEconomizer,
None,
0.7,
0.65;

ZoneHVAC:IdealLoadsAirSystem,
EG-13Ideal,
On,
EG-13IdealAirIn,
,
41,
14,
0.0147577169249135,
0.00799370481074886,
NoLimit,
0,
0,
NoLimit,
0,
0,
,
,
ConstantSensibleHeatRatio,
0.7,
None,
,
,
None,
NoEconomizer,
None,
0.7,
0.65;

ZoneHVAC:IdealLoadsAirSystem,
EG-17Ideal,
On,
EG-17IdealAirIn,
,
41,
14,
0.0147577169249135,
0.00799370481074886,
NoLimit,
0,
0,
NoLimit,
0,
0,
,
,
ConstantSensibleHeatRatio,
0.7,
None,
,
,
None,
NoEconomizer,
None,
0.7,
0.65;

ZoneHVAC:IdealLoadsAirSystem,
EG-03Ideal,
On,
EG-03IdealAirIn,
,
41,
14,
0.0147577169249135,
0.00799370481074886,
NoLimit,
0,
0,
NoLimit,
0,
0,
,
,
ConstantSensibleHeatRatio,
0.7,
None,
,
,
None,
NoEconomizer,
None,
0.7,
0.65;

ZoneHVAC:IdealLoadsAirSystem,
EG-06Ideal,
On,
EG-06IdealAirIn,
,
41,
14,
0.0147577169249135,
0.00799370481074886,
NoLimit,
0,
0,
NoLimit,
0,
0,
,
,
ConstantSensibleHeatRatio,
0.7,
None,
,
,
None,
NoEconomizer,
None,
0.7,
0.65;

ZoneHVAC:IdealLoadsAirSystem,
EG-05Ideal,
On,
EG-05IdealAirIn,
,
41,
14,
0.0147577169249135,
0.00799370481074886,
NoLimit,
0,
0,
NoLimit,
0,
0,
,
,
ConstantSensibleHeatRatio,
0.7,
None,
,
,
None,
NoEconomizer,
None,
0.7,
0.65;

ZoneHVAC:IdealLoadsAirSystem,
EG-16Ideal,
On,
EG-16IdealAirIn,
,
41,
14,
0.0147577169249135,
0.00799370481074886,
NoLimit,
0,
0,
NoLimit,
0,
0,
,
,
ConstantSensibleHeatRatio,
0.7,
None,
,
,
None,
NoEconomizer,
None,
0.7,
0.65;

ZoneHVAC:IdealLoadsAirSystem,
EG-29Ideal,
On,
EG-29IdealAirIn,
,
41,
14,
0.0147577169249135,
0.00799370481074886,
NoLimit,
0,
0,
NoLimit,
0,
0,
,
,
ConstantSensibleHeatRatio,
0.7,
None,
,
,
None,
NoEconomizer,
None,
0.7,
0.65;

ZoneHVAC:IdealLoadsAirSystem,
EG-28Ideal,
On,
EG-28IdealAirIn,
,
41,
14,
0.0147577169249135,
0.00799370481074886,
NoLimit,
0,
0,
NoLimit,
0,
0,
,
,
ConstantSensibleHeatRatio,
0.7,
None,
,
,
None,
NoEconomizer,
None,
0.7,
0.65;

ZoneHVAC:IdealLoadsAirSystem,
EG-27Ideal,
On,
EG-27IdealAirIn,
,
41,
14,
0.0147577169249135,
0.00799370481074886,
NoLimit,
0,
0,
NoLimit,
0,
0,
,
,
ConstantSensibleHeatRatio,
0.7,
None,
,
,
None,
NoEconomizer,
None,
0.7,
0.65;

ZoneHVAC:IdealLoadsAirSystem,
EG-14Ideal,
On,
EG-14IdealAirIn,
,
41,
14,
0.0147577169249135,
0.00799370481074886,
NoLimit,
0,
0,
NoLimit,
0,
0,
,
,
ConstantSensibleHeatRatio,
0.7,
None,
,
,
None,
NoEconomizer,
None,
0.7,
0.65;

ZoneHVAC:IdealLoadsAirSystem,
EG-01Ideal,
On,
EG-01IdealAirIn,
,
41,
14,
0.0147577169249135,
0.00799370481074886,
NoLimit,
0,
0,
NoLimit,
0,
0,
,
,
ConstantSensibleHeatRatio,
0.7,
None,
,
,
None,
NoEconomizer,
None,
0.7,
0.65;

ZoneHVAC:IdealLoadsAirSystem,
EG-18Ideal,
On,
EG-18IdealAirIn,
,
41,
14,
0.0147577169249135,
0.00799370481074886,
NoLimit,
0,
0,
NoLimit,
0,
0,
,
,
ConstantSensibleHeatRatio,
0.7,
None,
,
,
None,
NoEconomizer,
None,
0.7,
0.65;

ZoneHVAC:IdealLoadsAirSystem,
EG-19Ideal,
On,
EG-19IdealAirIn,
,
41,
14,
0.0147577169249135,
0.00799370481074886,
NoLimit,
0,
0,
NoLimit,
0,
0,
,
,
ConstantSensibleHeatRatio,
0.7,
None,
,
,
None,
NoEconomizer,
None,
0.7,
0.65;

ZoneHVAC:IdealLoadsAirSystem,
EG-20Ideal,
On,
EG-20IdealAirIn,
,
41,
14,
0.0147577169249135,
0.00799370481074886,
NoLimit,
0,
0,
NoLimit,
0,
0,
,
,
ConstantSensibleHeatRatio,
0.7,
None,
,
,
None,
NoEconomizer,
None,
0.7,
0.65;

ZoneHVAC:IdealLoadsAirSystem,
EG-32Ideal,
On,
EG-32IdealAirIn,
,
41,
14,
0.0147577169249135,
0.00799370481074886,
NoLimit,
0,
0,
NoLimit,
0,
0,
,
,
ConstantSensibleHeatRatio,
0.7,
None,
,
,
None,
NoEconomizer,
None,
0.7,
0.65;

ZoneHVAC:IdealLoadsAirSystem,
EG-15Ideal,
On,
EG-15IdealAirIn,
,
41,
14,
0.0147577169249135,
0.00799370481074886,
NoLimit,
0,
0,
NoLimit,
0,
0,
,
,
ConstantSensibleHeatRatio,
0.7,
None,
,
,
None,
NoEconomizer,
None,
0.7,
0.65;

ZoneHVAC:IdealLoadsAirSystem,
EG-21Ideal,
On,
EG-21IdealAirIn,
,
41,
14,
0.0147577169249135,
0.00799370481074886,
NoLimit,
0,
0,
NoLimit,
0,
0,
,
,
ConstantSensibleHeatRatio,
0.7,
None,
,
,
None,
NoEconomizer,
None,
0.7,
0.65;

ZoneHVAC:IdealLoadsAirSystem,
EG-22Ideal,
On,
EG-22IdealAirIn,
,
41,
14,
0.0147577169249135,
0.00799370481074886,
NoLimit,
0,
0,
NoLimit,
0,
0,
,
,
ConstantSensibleHeatRatio,
0.7,
None,
,
,
None,
NoEconomizer,
None,
0.7,
0.65;

ZoneHVAC:IdealLoadsAirSystem,
EG-30Ideal,
On,
EG-30IdealAirIn,
,
41,
14,
0.0147577169249135,
0.00799370481074886,
NoLimit,
0,
0,
NoLimit,
0,
0,
,
,
ConstantSensibleHeatRatio,
0.7,
None,
,
,
None,
NoEconomizer,
None,
0.7,
0.65;

ZoneHVAC:IdealLoadsAirSystem,
EG-31Ideal,
On,
EG-31IdealAirIn,
,
41,
14,
0.0147577169249135,
0.00799370481074886,
NoLimit,
0,
0,
NoLimit,
0,
0,
,
,
ConstantSensibleHeatRatio,
0.7,
None,
,
,
None,
NoEconomizer,
None,
0.7,
0.65;

ZoneHVAC:IdealLoadsAirSystem,
EG-08Ideal,
On,
EG-08IdealAirIn,
,
41,
14,
0.0147577169249135,
0.00799370481074886,
NoLimit,
0,
0,
NoLimit,
0,
0,
,
,
ConstantSensibleHeatRatio,
0.7,
None,
,
,
None,
NoEconomizer,
None,
0.7,
0.65;

ZoneHVAC:IdealLoadsAirSystem,
EG-09Ideal,
On,
EG-09IdealAirIn,
,
41,
14,
0.0147577169249135,
0.00799370481074886,
NoLimit,
0,
0,
NoLimit,
0,
0,
,
,
ConstantSensibleHeatRatio,
0.7,
None,
,
,
None,
NoEconomizer,
None,
0.7,
0.65;

ZoneHVAC:IdealLoadsAirSystem,
EG-07Ideal,
On,
EG-07IdealAirIn,
,
41,
14,
0.0147577169249135,
0.00799370481074886,
NoLimit,
0,
0,
NoLimit,
0,
0,
,
,
ConstantSensibleHeatRatio,
0.7,
None,
,
,
None,
NoEconomizer,
None,
0.7,
0.65;

ZoneHVAC:IdealLoadsAirSystem,
EG-02Ideal,
On,
EG-02IdealAirIn,
,
41,
14,
0.0147577169249135,
0.00799370481074886,
NoLimit,
0,
0,
NoLimit,
0,
0,
,
,
ConstantSensibleHeatRatio,
0.7,
None,
,
,
None,
NoEconomizer,
None,
0.7,
0.65;

ZoneHVAC:IdealLoadsAirSystem,
EG-23Ideal,
On,
EG-23IdealAirIn,
,
41,
14,
0.0147577169249135,
0.00799370481074886,
NoLimit,
0,
0,
NoLimit,
0,
0,
,
,
ConstantSensibleHeatRatio,
0.7,
None,
,
,
None,
NoEconomizer,
None,
0.7,
0.65;

ZoneHVAC:IdealLoadsAirSystem,
EG-24Ideal,
On,
EG-24IdealAirIn,
,
41,
14,
0.0147577169249135,
0.00799370481074886,
NoLimit,
0,
0,
NoLimit,
0,
0,
,
,
ConstantSensibleHeatRatio,
0.7,
None,
,
,
None,
NoEconomizer,
None,
0.7,
0.65;

ZoneHVAC:IdealLoadsAirSystem,
EG-26Ideal,
On,
EG-26IdealAirIn,
,
41,
14,
0.0147577169249135,
0.00799370481074886,
NoLimit,
0,
0,
NoLimit,
0,
0,
,
,
ConstantSensibleHeatRatio,
0.7,
None,
,
,
None,
NoEconomizer,
None,
0.7,
0.65;

ZoneHVAC:IdealLoadsAirSystem,
EG-25Ideal,
On,
EG-25IdealAirIn,
,
41,
14,
0.0147577169249135,
0.00799370481074886,
NoLimit,
0,
0,
NoLimit,
0,
0,
,
,
ConstantSensibleHeatRatio,
0.7,
None,
,
,
None,
NoEconomizer,
None,
0.7,
0.65;

ZoneHVAC:IdealLoadsAirSystem,
OG-06Ideal,
On,
OG-06IdealAirIn,
,
41,
14,
0.0147577169249135,
0.00799370481074886,
NoLimit,
0,
0,
NoLimit,
0,
0,
,
,
ConstantSensibleHeatRatio,
0.7,
None,
,
,
None,
NoEconomizer,
None,
0.7,
0.65;

ZoneHVAC:IdealLoadsAirSystem,
OG-07Ideal,
On,
OG-07IdealAirIn,
,
41,
14,
0.0147577169249135,
0.00799370481074886,
NoLimit,
0,
0,
NoLimit,
0,
0,
,
,
ConstantSensibleHeatRatio,
0.7,
None,
,
,
None,
NoEconomizer,
None,
0.7,
0.65;

ZoneHVAC:IdealLoadsAirSystem,
OG-10Ideal,
On,
OG-10IdealAirIn,
,
41,
14,
0.0147577169249135,
0.00799370481074886,
NoLimit,
0,
0,
NoLimit,
0,
0,
,
,
ConstantSensibleHeatRatio,
0.7,
None,
,
,
None,
NoEconomizer,
None,
0.7,
0.65;

ZoneHVAC:IdealLoadsAirSystem,
OG-09Ideal,
On,
OG-09IdealAirIn,
,
41,
14,
0.0147577169249135,
0.00799370481074886,
NoLimit,
0,
0,
NoLimit,
0,
0,
,
,
ConstantSensibleHeatRatio,
0.7,
None,
,
,
None,
NoEconomizer,
None,
0.7,
0.65;

ZoneHVAC:IdealLoadsAirSystem,
OG-08Ideal,
On,
OG-08IdealAirIn,
,
41,
14,
0.0147577169249135,
0.00799370481074886,
NoLimit,
0,
0,
NoLimit,
0,
0,
,
,
ConstantSensibleHeatRatio,
0.7,
None,
,
,
None,
NoEconomizer,
None,
0.7,
0.65;

ZoneHVAC:IdealLoadsAirSystem,
OG-12Ideal,
On,
OG-12IdealAirIn,
,
41,
14,
0.0147577169249135,
0.00799370481074886,
NoLimit,
0,
0,
NoLimit,
0,
0,
,
,
ConstantSensibleHeatRatio,
0.7,
None,
,
,
None,
NoEconomizer,
None,
0.7,
0.65;

ZoneHVAC:IdealLoadsAirSystem,
OG-11Ideal,
On,
OG-11IdealAirIn,
,
41,
14,
0.0147577169249135,
0.00799370481074886,
NoLimit,
0,
0,
NoLimit,
0,
0,
,
,
ConstantSensibleHeatRatio,
0.7,
None,
,
,
None,
NoEconomizer,
None,
0.7,
0.65;

ZoneHVAC:IdealLoadsAirSystem,
OG-05Ideal,
On,
OG-05IdealAirIn,
,
41,
14,
0.0147577169249135,
0.00799370481074886,
NoLimit,
0,
0,
NoLimit,
0,
0,
,
,
ConstantSensibleHeatRatio,
0.7,
None,
,
,
None,
NoEconomizer,
None,
0.7,
0.65;

ZoneHVAC:IdealLoadsAirSystem,
OG-04Ideal,
On,
OG-04IdealAirIn,
,
41,
14,
0.0147577169249135,
0.00799370481074886,
NoLimit,
0,
0,
NoLimit,
0,
0,
,
,
ConstantSensibleHeatRatio,
0.7,
None,
,
,
None,
NoEconomizer,
None,
0.7,
0.65;

ZoneHVAC:IdealLoadsAirSystem,
OG-03Ideal,
On,
OG-03IdealAirIn,
,
41,
14,
0.0147577169249135,
0.00799370481074886,
NoLimit,
0,
0,
NoLimit,
0,
0,
,
,
ConstantSensibleHeatRatio,
0.7,
None,
,
,
None,
NoEconomizer,
None,
0.7,
0.65;

ZoneHVAC:IdealLoadsAirSystem,
OG-17Ideal,
On,
OG-17IdealAirIn,
,
41,
14,
0.0147577169249135,
0.00799370481074886,
NoLimit,
0,
0,
NoLimit,
0,
0,
,
,
ConstantSensibleHeatRatio,
0.7,
None,
,
,
None,
NoEconomizer,
None,
0.7,
0.65;

ZoneHVAC:IdealLoadsAirSystem,
OG-24Ideal,
On,
OG-24IdealAirIn,
,
41,
14,
0.0147577169249135,
0.00799370481074886,
NoLimit,
0,
0,
NoLimit,
0,
0,
,
,
ConstantSensibleHeatRatio,
0.7,
None,
,
,
None,
NoEconomizer,
None,
0.7,
0.65;

ZoneHVAC:IdealLoadsAirSystem,
OG-23Ideal,
On,
OG-23IdealAirIn,
,
41,
14,
0.0147577169249135,
0.00799370481074886,
NoLimit,
0,
0,
NoLimit,
0,
0,
,
,
ConstantSensibleHeatRatio,
0.7,
None,
,
,
None,
NoEconomizer,
None,
0.7,
0.65;

ZoneHVAC:IdealLoadsAirSystem,
OG-02Ideal,
On,
OG-02IdealAirIn,
,
41,
14,
0.0147577169249135,
0.00799370481074886,
NoLimit,
0,
0,
NoLimit,
0,
0,
,
,
ConstantSensibleHeatRatio,
0.7,
None,
,
,
None,
NoEconomizer,
None,
0.7,
0.65;

ZoneHVAC:IdealLoadsAirSystem,
OG-20Ideal,
On,
OG-20IdealAirIn,
,
41,
14,
0.0147577169249135,
0.00799370481074886,
NoLimit,
0,
0,
NoLimit,
0,
0,
,
,
ConstantSensibleHeatRatio,
0.7,
None,
,
,
None,
NoEconomizer,
None,
0.7,
0.65;

ZoneHVAC:IdealLoadsAirSystem,
OG-18Ideal,
On,
OG-18IdealAirIn,
,
41,
14,
0.0147577169249135,
0.00799370481074886,
NoLimit,
0,
0,
NoLimit,
0,
0,
,
,
ConstantSensibleHeatRatio,
0.7,
None,
,
,
None,
NoEconomizer,
None,
0.7,
0.65;

ZoneHVAC:IdealLoadsAirSystem,
OG-14Ideal,
On,
OG-14IdealAirIn,
,
41,
14,
0.0147577169249135,
0.00799370481074886,
NoLimit,
0,
0,
NoLimit,
0,
0,
,
,
ConstantSensibleHeatRatio,
0.7,
None,
,
,
None,
NoEconomizer,
None,
0.7,
0.65;

ZoneHVAC:IdealLoadsAirSystem,
OG-15Ideal,
On,
OG-15IdealAirIn,
,
41,
14,
0.0147577169249135,
0.00799370481074886,
NoLimit,
0,
0,
NoLimit,
0,
0,
,
,
ConstantSensibleHeatRatio,
0.7,
None,
,
,
None,
NoEconomizer,
None,
0.7,
0.65;

ZoneHVAC:IdealLoadsAirSystem,
OG-16Ideal,
On,
OG-16IdealAirIn,
,
41,
14,
0.0147577169249135,
0.00799370481074886,
NoLimit,
0,
0,
NoLimit,
0,
0,
,
,
ConstantSensibleHeatRatio,
0.7,
None,
,
,
None,
NoEconomizer,
None,
0.7,
0.65;

ZoneHVAC:IdealLoadsAirSystem,
OG-01Ideal,
On,
OG-01IdealAirIn,
,
41,
14,
0.0147577169249135,
0.00799370481074886,
NoLimit,
0,
0,
NoLimit,
0,
0,
,
,
ConstantSensibleHeatRatio,
0.7,
None,
,
,
None,
NoEconomizer,
None,
0.7,
0.65;

ZoneHVAC:IdealLoadsAirSystem,
OG-22Ideal,
On,
OG-22IdealAirIn,
,
41,
14,
0.0147577169249135,
0.00799370481074886,
NoLimit,
0,
0,
NoLimit,
0,
0,
,
,
ConstantSensibleHeatRatio,
0.7,
None,
,
,
None,
NoEconomizer,
None,
0.7,
0.65;

ZoneHVAC:IdealLoadsAirSystem,
OG-21Ideal,
On,
OG-21IdealAirIn,
,
41,
14,
0.0147577169249135,
0.00799370481074886,
NoLimit,
0,
0,
NoLimit,
0,
0,
,
,
ConstantSensibleHeatRatio,
0.7,
None,
,
,
None,
NoEconomizer,
None,
0.7,
0.65;

ZoneHVAC:IdealLoadsAirSystem,
OG-19Ideal,
On,
OG-19IdealAirIn,
,
41,
14,
0.0147577169249135,
0.00799370481074886,
NoLimit,
0,
0,
NoLimit,
0,
0,
,
,
ConstantSensibleHeatRatio,
0.7,
None,
,
,
None,
NoEconomizer,
None,
0.7,
0.65;

ZoneHVAC:IdealLoadsAirSystem,
DG-04Ideal,
On,
DG-04IdealAirIn,
,
41,
14,
0.0147577169249135,
0.00799370481074886,
NoLimit,
0,
0,
NoLimit,
0,
0,
,
,
ConstantSensibleHeatRatio,
0.7,
None,
,
,
None,
NoEconomizer,
None,
0.7,
0.65;

ZoneHVAC:IdealLoadsAirSystem,
DG-06Ideal,
On,
DG-06IdealAirIn,
,
41,
14,
0.0147577169249135,
0.00799370481074886,
NoLimit,
0,
0,
NoLimit,
0,
0,
,
,
ConstantSensibleHeatRatio,
0.7,
None,
,
,
None,
NoEconomizer,
None,
0.7,
0.65;

ZoneHVAC:IdealLoadsAirSystem,
DG-02Ideal,
On,
DG-02IdealAirIn,
,
41,
14,
0.0147577169249135,
0.00799370481074886,
NoLimit,
0,
0,
NoLimit,
0,
0,
,
,
ConstantSensibleHeatRatio,
0.7,
None,
,
,
None,
NoEconomizer,
None,
0.7,
0.65;

ZoneHVAC:IdealLoadsAirSystem,
DG-03Ideal,
On,
DG-03IdealAirIn,
,
41,
14,
0.0147577169249135,
0.00799370481074886,
NoLimit,
0,
0,
NoLimit,
0,
0,
,
,
ConstantSensibleHeatRatio,
0.7,
None,
,
,
None,
NoEconomizer,
None,
0.7,
0.65;

ZoneHVAC:IdealLoadsAirSystem,
DG-01Ideal,
On,
DG-01IdealAirIn,
,
41,
14,
0.0147577169249135,
0.00799370481074886,
NoLimit,
0,
0,
NoLimit,
0,
0,
,
,
ConstantSensibleHeatRatio,
0.7,
None,
,
,
None,
NoEconomizer,
None,
0.7,
0.65;

ZoneHVAC:EquipmentList,
EG-10EquipList,
ZoneHVAC:IdealLoadsAirSystem,
EG-10Ideal,
1,
1;

ZoneHVAC:EquipmentList,
EG-11EquipList,
ZoneHVAC:IdealLoadsAirSystem,
EG-11Ideal,
1,
1;

ZoneHVAC:EquipmentList,
EG-12EquipList,
ZoneHVAC:IdealLoadsAirSystem,
EG-12Ideal,
1,
1;

ZoneHVAC:EquipmentList,
EG-13EquipList,
ZoneHVAC:IdealLoadsAirSystem,
EG-13Ideal,
1,
1;

ZoneHVAC:EquipmentList,
EG-17EquipList,
ZoneHVAC:IdealLoadsAirSystem,
EG-17Ideal,
1,
1;

ZoneHVAC:EquipmentList,
EG-03EquipList,
ZoneHVAC:IdealLoadsAirSystem,
EG-03Ideal,
1,
1;

ZoneHVAC:EquipmentList,
EG-06EquipList,
ZoneHVAC:IdealLoadsAirSystem,
EG-06Ideal,
1,
1;

ZoneHVAC:EquipmentList,
EG-05EquipList,
ZoneHVAC:IdealLoadsAirSystem,
EG-05Ideal,
1,
1;

ZoneHVAC:EquipmentList,
EG-16EquipList,
ZoneHVAC:IdealLoadsAirSystem,
EG-16Ideal,
1,
1;

ZoneHVAC:EquipmentList,
EG-29EquipList,
ZoneHVAC:IdealLoadsAirSystem,
EG-29Ideal,
1,
1;

ZoneHVAC:EquipmentList,
EG-28EquipList,
ZoneHVAC:IdealLoadsAirSystem,
EG-28Ideal,
1,
1;

ZoneHVAC:EquipmentList,
EG-27EquipList,
ZoneHVAC:IdealLoadsAirSystem,
EG-27Ideal,
1,
1;

ZoneHVAC:EquipmentList,
EG-14EquipList,
ZoneHVAC:IdealLoadsAirSystem,
EG-14Ideal,
1,
1;

ZoneHVAC:EquipmentList,
EG-01EquipList,
ZoneHVAC:IdealLoadsAirSystem,
EG-01Ideal,
1,
1;

ZoneHVAC:EquipmentList,
EG-18EquipList,
ZoneHVAC:IdealLoadsAirSystem,
EG-18Ideal,
1,
1;

ZoneHVAC:EquipmentList,
EG-19EquipList,
ZoneHVAC:IdealLoadsAirSystem,
EG-19Ideal,
1,
1;

ZoneHVAC:EquipmentList,
EG-20EquipList,
ZoneHVAC:IdealLoadsAirSystem,
EG-20Ideal,
1,
1;

ZoneHVAC:EquipmentList,
EG-32EquipList,
ZoneHVAC:IdealLoadsAirSystem,
EG-32Ideal,
1,
1;

ZoneHVAC:EquipmentList,
EG-15EquipList,
ZoneHVAC:IdealLoadsAirSystem,
EG-15Ideal,
1,
1;

ZoneHVAC:EquipmentList,
EG-21EquipList,
ZoneHVAC:IdealLoadsAirSystem,
EG-21Ideal,
1,
1;

ZoneHVAC:EquipmentList,
EG-22EquipList,
ZoneHVAC:IdealLoadsAirSystem,
EG-22Ideal,
1,
1;

ZoneHVAC:EquipmentList,
EG-30EquipList,
ZoneHVAC:IdealLoadsAirSystem,
EG-30Ideal,
1,
1;

ZoneHVAC:EquipmentList,
EG-31EquipList,
ZoneHVAC:IdealLoadsAirSystem,
EG-31Ideal,
1,
1;

ZoneHVAC:EquipmentList,
EG-08EquipList,
ZoneHVAC:IdealLoadsAirSystem,
EG-08Ideal,
1,
1;

ZoneHVAC:EquipmentList,
EG-09EquipList,
ZoneHVAC:IdealLoadsAirSystem,
EG-09Ideal,
1,
1;

ZoneHVAC:EquipmentList,
EG-07EquipList,
ZoneHVAC:IdealLoadsAirSystem,
EG-07Ideal,
1,
1;

ZoneHVAC:EquipmentList,
EG-02EquipList,
ZoneHVAC:IdealLoadsAirSystem,
EG-02Ideal,
1,
1;

ZoneHVAC:EquipmentList,
EG-23EquipList,
ZoneHVAC:IdealLoadsAirSystem,
EG-23Ideal,
1,
1;

ZoneHVAC:EquipmentList,
EG-24EquipList,
ZoneHVAC:IdealLoadsAirSystem,
EG-24Ideal,
1,
1;

ZoneHVAC:EquipmentList,
EG-26EquipList,
ZoneHVAC:IdealLoadsAirSystem,
EG-26Ideal,
1,
1;

ZoneHVAC:EquipmentList,
EG-25EquipList,
ZoneHVAC:IdealLoadsAirSystem,
EG-25Ideal,
1,
1;

ZoneHVAC:EquipmentList,
OG-06EquipList,
ZoneHVAC:IdealLoadsAirSystem,
OG-06Ideal,
1,
1;

ZoneHVAC:EquipmentList,
OG-07EquipList,
ZoneHVAC:IdealLoadsAirSystem,
OG-07Ideal,
1,
1;

ZoneHVAC:EquipmentList,
OG-10EquipList,
ZoneHVAC:IdealLoadsAirSystem,
OG-10Ideal,
1,
1;

ZoneHVAC:EquipmentList,
OG-09EquipList,
ZoneHVAC:IdealLoadsAirSystem,
OG-09Ideal,
1,
1;

ZoneHVAC:EquipmentList,
OG-08EquipList,
ZoneHVAC:IdealLoadsAirSystem,
OG-08Ideal,
1,
1;

ZoneHVAC:EquipmentList,
OG-12EquipList,
ZoneHVAC:IdealLoadsAirSystem,
OG-12Ideal,
1,
1;

ZoneHVAC:EquipmentList,
OG-11EquipList,
ZoneHVAC:IdealLoadsAirSystem,
OG-11Ideal,
1,
1;

ZoneHVAC:EquipmentList,
OG-05EquipList,
ZoneHVAC:IdealLoadsAirSystem,
OG-05Ideal,
1,
1;

ZoneHVAC:EquipmentList,
OG-04EquipList,
ZoneHVAC:IdealLoadsAirSystem,
OG-04Ideal,
1,
1;

ZoneHVAC:EquipmentList,
OG-03EquipList,
ZoneHVAC:IdealLoadsAirSystem,
OG-03Ideal,
1,
1;

ZoneHVAC:EquipmentList,
OG-17EquipList,
ZoneHVAC:IdealLoadsAirSystem,
OG-17Ideal,
1,
1;

ZoneHVAC:EquipmentList,
OG-24EquipList,
ZoneHVAC:IdealLoadsAirSystem,
OG-24Ideal,
1,
1;

ZoneHVAC:EquipmentList,
OG-23EquipList,
ZoneHVAC:IdealLoadsAirSystem,
OG-23Ideal,
1,
1;

ZoneHVAC:EquipmentList,
OG-02EquipList,
ZoneHVAC:IdealLoadsAirSystem,
OG-02Ideal,
1,
1;

ZoneHVAC:EquipmentList,
OG-20EquipList,
ZoneHVAC:IdealLoadsAirSystem,
OG-20Ideal,
1,
1;

ZoneHVAC:EquipmentList,
OG-18EquipList,
ZoneHVAC:IdealLoadsAirSystem,
OG-18Ideal,
1,
1;

ZoneHVAC:EquipmentList,
OG-14EquipList,
ZoneHVAC:IdealLoadsAirSystem,
OG-14Ideal,
1,
1;

ZoneHVAC:EquipmentList,
OG-15EquipList,
ZoneHVAC:IdealLoadsAirSystem,
OG-15Ideal,
1,
1;

ZoneHVAC:EquipmentList,
OG-16EquipList,
ZoneHVAC:IdealLoadsAirSystem,
OG-16Ideal,
1,
1;

ZoneHVAC:EquipmentList,
OG-01EquipList,
ZoneHVAC:IdealLoadsAirSystem,
OG-01Ideal,
1,
1;

ZoneHVAC:EquipmentList,
OG-22EquipList,
ZoneHVAC:IdealLoadsAirSystem,
OG-22Ideal,
1,
1;

ZoneHVAC:EquipmentList,
OG-21EquipList,
ZoneHVAC:IdealLoadsAirSystem,
OG-21Ideal,
1,
1;

ZoneHVAC:EquipmentList,
OG-19EquipList,
ZoneHVAC:IdealLoadsAirSystem,
OG-19Ideal,
1,
1;

ZoneHVAC:EquipmentList,
DG-04EquipList,
ZoneHVAC:IdealLoadsAirSystem,
DG-04Ideal,
1,
1;

ZoneHVAC:EquipmentList,
DG-06EquipList,
ZoneHVAC:IdealLoadsAirSystem,
DG-06Ideal,
1,
1;

ZoneHVAC:EquipmentList,
DG-02EquipList,
ZoneHVAC:IdealLoadsAirSystem,
DG-02Ideal,
1,
1;

ZoneHVAC:EquipmentList,
DG-03EquipList,
ZoneHVAC:IdealLoadsAirSystem,
DG-03Ideal,
1,
1;

ZoneHVAC:EquipmentList,
DG-01EquipList,
ZoneHVAC:IdealLoadsAirSystem,
DG-01Ideal,
1,
1;

ZoneHVAC:EquipmentConnections,
EG-10,
EG-10EquipList,
EG-10_AirIn,
,
EG-10_Air,
EG-10_RetAir;

ZoneHVAC:EquipmentConnections,
EG-11,
EG-11EquipList,
EG-11_AirIn,
,
EG-11_Air,
EG-11_RetAir;

ZoneHVAC:EquipmentConnections,
EG-12,
EG-12EquipList,
EG-12_AirIn,
,
EG-12_Air,
EG-12_RetAir;

ZoneHVAC:EquipmentConnections,
EG-13,
EG-13EquipList,
EG-13_AirIn,
,
EG-13_Air,
EG-13_RetAir;

ZoneHVAC:EquipmentConnections,
EG-17,
EG-17EquipList,
EG-17_AirIn,
,
EG-17_Air,
EG-17_RetAir;

ZoneHVAC:EquipmentConnections,
EG-03,
EG-03EquipList,
EG-03_AirIn,
,
EG-03_Air,
EG-03_RetAir;

ZoneHVAC:EquipmentConnections,
EG-06,
EG-06EquipList,
EG-06_AirIn,
,
EG-06_Air,
EG-06_RetAir;

ZoneHVAC:EquipmentConnections,
EG-05,
EG-05EquipList,
EG-05_AirIn,
,
EG-05_Air,
EG-05_RetAir;

ZoneHVAC:EquipmentConnections,
EG-16,
EG-16EquipList,
EG-16_AirIn,
,
EG-16_Air,
EG-16_RetAir;

ZoneHVAC:EquipmentConnections,
EG-29,
EG-29EquipList,
EG-29_AirIn,
,
EG-29_Air,
EG-29_RetAir;

ZoneHVAC:EquipmentConnections,
EG-28,
EG-28EquipList,
EG-28_AirIn,
,
EG-28_Air,
EG-28_RetAir;

ZoneHVAC:EquipmentConnections,
EG-27,
EG-27EquipList,
EG-27_AirIn,
,
EG-27_Air,
EG-27_RetAir;

ZoneHVAC:EquipmentConnections,
EG-14,
EG-14EquipList,
EG-14_AirIn,
,
EG-14_Air,
EG-14_RetAir;

ZoneHVAC:EquipmentConnections,
EG-01,
EG-01EquipList,
EG-01_AirIn,
,
EG-01_Air,
EG-01_RetAir;

ZoneHVAC:EquipmentConnections,
EG-18,
EG-18EquipList,
EG-18_AirIn,
,
EG-18_Air,
EG-18_RetAir;

ZoneHVAC:EquipmentConnections,
EG-19,
EG-19EquipList,
EG-19_AirIn,
,
EG-19_Air,
EG-19_RetAir;

ZoneHVAC:EquipmentConnections,
EG-20,
EG-20EquipList,
EG-20_AirIn,
,
EG-20_Air,
EG-20_RetAir;

ZoneHVAC:EquipmentConnections,
EG-32,
EG-32EquipList,
EG-32_AirIn,
,
EG-32_Air,
EG-32_RetAir;

ZoneHVAC:EquipmentConnections,
EG-15,
EG-15EquipList,
EG-15_AirIn,
,
EG-15_Air,
EG-15_RetAir;

ZoneHVAC:EquipmentConnections,